13
Properties=species:S:1:pos:R:3 pbc="F F F"
B       -1.27516429      -1.30691322       0.03238443
B       -1.22384851      -0.01170767      -1.31170685
B       -1.22103936       0.03837174       1.27652628
B       -1.27287200       1.27682912      -0.02328649
B        0.01209811      -1.39566401      -1.38624589
B       -0.02811438      -1.35064156       1.31571237
B        1.25459880      -1.37061519       0.07328244
B       -0.01128882       1.30337641      -1.37123741
B        1.27278086       0.00554613      -1.35754968
B        0.01878490      -0.03003193      -0.01458469
B       -0.03008533       1.39261391       1.29932514
B        1.24711445       0.04112725       1.23895782
B        1.31044318       1.20201649      -0.06640930
