7
Properties=species:S:1:pos:R:3 pbc="F F F"
B       -1.90000000       0.00000000       0.00000000
B        0.00000000      -1.90000000       0.00000000
B        0.00000000       0.00000000      -1.90000000
B        0.00000000       0.00000000       0.00000000
B        0.00000000       0.00000000       1.90000000
B        0.00000000       1.90000000       0.00000000
B        1.90000000       0.00000000       0.00000000
